Circuit: * \\wsl.localhost\Ubuntu\home\swastim01\CMOS_Ring_Oscillator\Ring_Oscillator.asc

Direct Newton iteration for .op point succeeded.

Date: Thu Mar 13 23:59:03 2025
Total elapsed time: 0.502 seconds.

tnom = 27
temp = 27
method = modified trap
totiter = 2881
traniter = 2860
tranpoints = 1042
accept = 1042
rejected = 0
matrix size = 121
fillins = 16
solver = Normal
Thread vector: 69.3/58.8[2] 4.6/4.1[2] 2.3/2.7[1] 1.0/6.7[1]  2592/500
Matrix Compiler1: 14.66 KB object code size  3.5/1.7/[1.4]
Matrix Compiler2: 13.53 KB object code size  1.3/2.4/[1.1]

